resultados/_temp_alt2_1p20/LineSummary.csv
line,maxCurrentA,normAmps,maxLoadingPct,meanLoadingPct,overloadHours
rbt_1607347,92.13265622503759,124.95,73.73561922772116,25.444062513824065,0
sbt_7584,92.1326664326836,163.8,56.24704910420244,19.40925439501572,0
sbt_22840,92.13266175687797,163.8,56.24704624962025,19.40925433881866,0
rbt_630758,30.663284316384274,76.65,40.00428482241914,17.753679424235,0
rbt_637576,24.53952383826375,61.95,39.61182217637409,14.704591693826695,0
rbt_632607,49.091241495243246,124.95,39.28870867966646,18.505461327874105,0
rbt_1130761,30.47871603609333,90.3,33.752730936980434,15.890570754197226,0
rbt_606147,25.202770294456137,76.65,32.88032654201714,12.451557567172246,0
rbt_605836,25.861207074551615,90.3,28.639210492305224,13.497174005922894,0
rbt_637360,17.67314517244078,61.95,28.52807937439997,13.403386279486048,0
rbt_637918,17.465363231429908,61.95,28.192676725472005,11.354462873582342,0
rbt_626476,15.267867135125831,61.95,24.64546753046946,11.59769332806794,0
rbt_1607350,21.71741678484058,90.3,24.05029544279134,8.77299436152963,0
rbt_606126,13.452721646617123,61.95,21.71545059986622,7.815024972599795,0
rbt_1633671,12.971650644575645,61.95,20.938903381074486,10.399453903264492,0
rbt_3405844,18.623526609988687,90.3,20.62406047617795,7.1536694381294135,0
rbt_1627323,15.034530972980914,76.65,19.614521817326697,9.230322062911108,0
rbt_606143,14.766844950191114,76.65,19.26529021551352,6.867144055427378,0
sbt_34378,24.673428306885558,128.1,19.261068155258048,9.45265225272619,0
sbt_34379,24.596398171299242,128.1,19.200935340592697,9.316940216712824,0
rbt_637397,11.746716615605527,61.95,18.96160874189754,8.913803029746594,0
rbt_635862,10.551963160209116,61.95,17.033031735607935,5.8816480913739,0
rbt_3435739,12.839719569568397,76.65,16.751101852013562,8.418625697559229,0
smt_29422,26.61317899602081,163.8,16.247362024432725,12.476564123094276,0
smt_17184,26.553476583267866,163.8,16.210913664998696,12.428708333483966,0
smt_19119,26.552891883277873,163.8,16.210556705297847,12.427911612109128,0
rbt_605816,9.954970225551769,61.95,16.0693627531102,6.184725335153732,0
sbt_24791,25.202791616014256,163.8,15.38631966789637,5.826691013148468,0
sbt_3174,25.202782731310023,163.8,15.386314243779012,5.826692650227173,0
rbt_609688,10.924595425373017,76.65,14.252570678895,5.29126880293328,0
rbt_1638954,8.580016008297703,61.95,13.849904775298954,6.510606327595766,0
rbt_1607265,12.062787145843117,90.3,13.358568267821836,6.288573445063055,0
rbt_606139,9.251505888617423,76.65,12.069805464601986,4.38124289765195,0
sbt_9361,25.861207151606877,216.3,11.956175289693425,5.634742519053348,0
rbt_623004,7.073149798860895,61.95,11.417513799614035,4.567124562292819,0
rbt_606121,6.9664190301924025,61.95,11.245228458744798,5.28382442361245,0
sbt_11363,17.69305408581543,163.8,10.80162032101064,4.111229137096372,0
rbt_1605991,6.667471265451139,61.95,10.76266548095422,5.060733598000186,0
rbt_1607280,6.614264973827441,61.95,10.676779618769073,5.01816028223059,0
sbt_34393,13.299134078353942,128.1,10.381837688020253,6.825748165472874,0
rbt_606114,9.035747757024627,90.3,10.006365179429267,4.703809098040961,0
rbt_627337,8.796987389465638,90.3,9.741957241933154,4.581681344805694,0
smt_24512,15.89826411375418,163.8,9.705899947346875,9.54730578276053,0
smt_19115,15.898211378874132,163.8,9.70586775267041,9.54727481352377,0
smt_29473,15.896741335455978,163.8,9.704970290266164,9.546411492000155,0
smt_29474,15.894871604306767,163.8,9.7038288182581,9.545313449449997,0
smt_6092,15.893004452707123,163.8,9.702688921066619,9.544216928627167,0
smt_19063,15.891338037806914,163.8,9.701671573752694,9.543238300048559,0
smt_6227,15.889416322380706,163.8,9.700498365311786,9.542109748911455,0
smt_6144,15.887479393623291,163.8,9.699315869122888,9.540972270859239,0
smt_6176,15.885476736366988,163.8,9.69809324564529,9.539796200860057,0
smt_6719,15.883589590892031,163.8,9.696941142180727,9.538687972845892,0
smt_6062,15.88157109141492,163.8,9.695708847017654,9.537502614730348,0
smt_6066,15.879782417910805,163.8,9.694616860751406,9.53645222790492,0
smt_19014,15.878164019581176,163.8,9.693628827583135,9.535501839430767,0
smt_19011,15.876228955392238,163.8,9.69244746971443,9.534365498687196,0
smt_29475,15.874275816514714,163.8,9.69125507723731,9.533218551186206,0
smt_6594,15.872573546366128,163.8,9.69021584027236,9.532218928068565,0
smt_29476,15.870600550238917,163.8,9.689011324932183,9.531060333704382,0
smt_19061,15.868645738668553,163.8,9.687817911275062,9.529912425221742,0
smt_6474,15.86704627756268,163.8,9.686841439293454,9.528973191810742,0
smt_37840,15.8654104696446,163.8,9.685842777560804,9.52801262003099,0
smt_13371,15.723194016913265,163.8,9.599019546345094,9.37787352816612,0
smt_21221,15.721444199717027,163.8,9.597951281878526,9.37681012952415,0
smt_13441,15.71971279776621,163.8,9.59689425993053,9.375757923403757,0
smt_857,15.718529861237933,163.8,9.596172076457833,9.3750390309185,0
smt_21217,15.717311236900374,163.8,9.595428105555783,9.374298450860596,0
smt_26396,15.715922043077702,163.8,9.594580001878938,9.373454213397297,0
smt_39969,15.715850515411763,163.8,9.594536334195215,9.373410745408682,0
smt_14288,15.715435798962158,163.8,9.594283149549547,9.363857320419756,0
smt_13847,15.714698462178601,163.8,9.59383300499304,9.37271062295432,0
smt_20815,15.713720453173314,163.8,9.593235929898238,9.362814759789355,0
smt_14513,15.713103654305778,163.8,9.59285937381305,9.371741431915256,0
smt_13787,15.711783359689997,163.8,9.592053333144076,9.370939067846985,0
smt_21165,15.709863243145415,163.8,9.590881100821376,9.369772183596467,0
smt_21157,15.709518838353612,163.8,9.590670841485721,9.360261088762266,0
smt_26394,15.707924330874816,163.8,9.589697393696468,9.368593878375012,0
smt_15145,15.70779289634715,163.8,9.589617152837087,9.359212092362236,0
smt_14041,15.706138567007027,163.8,9.588607183764973,9.36750864492186,0
smt_15288,15.705645721942892,163.8,9.588306301552436,9.35790708032703,0
smt_26393,15.7046805022554,163.8,9.587717034343955,9.366622559751939,0
smt_26388,15.70385198709623,163.8,9.587211225333474,9.35681688365549,0
smt_13284,15.703301925395566,163.8,9.586875412329404,9.365784781184281,0
smt_20997,15.702071023294957,163.8,9.586123945845516,9.35573445036569,0
smt_21164,15.701534602986538,163.8,9.585796460919742,9.36471075805556,0
smt_15035,15.700385016249502,163.8,9.585094637514958,9.354709731099234,0
smt_13919,15.699664993632938,163.8,9.584655063267972,9.363574575280978,0
smt_20816,15.697840832438974,163.8,9.583541411745404,9.353163432470636,0
smt_20813,15.69770439772778,163.8,9.583458118270926,9.36238310032727,0
smt_20814,15.696394297515148,163.8,9.582658301291298,9.361586939347017,0
smt_14255,15.696020252927106,163.8,9.582429946841945,9.352056926264678,0
smt_15189,15.694692591652366,163.8,9.581619408823178,9.351250005233545,0
smt_21162,15.694564015291938,163.8,9.58154091287664,9.360474659665622,0
smt_14349,15.693255219177606,163.8,9.58074189204982,9.350376405252598,0
smt_14630,15.691475063928298,163.8,9.579655106183331,9.349294471340206,0
smt_20817,15.690104144204426,163.8,9.57881815885496,9.348461261519864,0
smt_26478,15.68898816595818,163.8,9.578136853454321,9.375105790357873,0
smt_14608,15.688657134946084,163.8,9.577934758819342,9.34758180724164,0
smt_30311,15.68727874552087,163.8,9.577093251233743,9.374085687036116,0
smt_20862,15.68633399739639,163.8,9.576516481926978,9.346169866993842,0
smt_14452,15.68520635633846,163.8,9.575828056372686,9.372848985645392,0
smt_14261,15.68518189472575,163.8,9.575813122543192,9.345469651014042,0
smt_22508,15.683527722534134,163.8,9.574803249410339,9.371847262359807,0
smt_14274,15.683190339018703,163.8,9.574597276568193,9.34425924010755,0
smt_26385,15.68159985893652,163.8,9.573626287507032,9.343292592735018,0
smt_14113,15.681529490692018,163.8,9.573583327650805,9.370654823870339,0
smt_14298,15.680074712461675,163.8,9.572695184653037,9.342365654212683,0
smt_14544,15.679265739497525,163.8,9.572201306164544,9.369303943614943,0
smt_14732,15.678516876487388,163.8,9.571744124839675,9.341418848938979,0
smt_22453,15.677204942848784,163.8,9.57094318855237,9.368074180921145,0
smt_21153,15.67691501459092,163.8,9.570766187173943,9.340445287105377,0
smt_14754,15.675693122298417,163.8,9.570020221183405,9.367646580012535,0
smt_36207,15.675336770910315,163.8,9.569802668443415,9.339486080792339,0
smt_26474,15.675144019736987,163.8,9.569684993734423,9.366844348080418,0
smt_14780,15.673668132182096,163.8,9.568783963481133,9.366437431084877,0
smt_14872,15.673458474974053,163.8,9.568655967627626,9.33834451346315,0
smt_21229,15.673430147873447,163.8,9.568638673915412,9.365821618282002,0
smt_26472,15.671635354179315,163.8,9.567542951269422,9.365223637007508,0
smt_14729,15.671489038881878,163.8,9.567453625691012,9.364663292274779,0
smt_15028,15.670739688897227,163.8,9.566996147067904,9.323513959286826,0
smt_15243,15.669600579258118,163.8,9.5663007199378,9.36400865572544,0
smt_14970,15.66939321950549,163.8,9.566174126682228,9.314971803017002,0
smt_13747,15.667821039282515,163.8,9.565214309696286,9.314015559900215,0
smt_15568,15.666970650036392,163.8,9.564695146542364,9.358173359387594,0
smt_20865,15.666301853268756,163.8,9.56428684570742,9.313091550485384,0
smt_15581,15.665523167467805,163.8,9.563811457550552,9.357307843060463,0
smt_14193,15.664659454445166,163.8,9.563284160222933,9.312092600961785,0
smt_23196,15.664030795879158,163.8,9.562900363784589,9.356415488315157,0
smt_14225,15.663153350573205,163.8,9.562364682889623,9.311176550681997,0
smt_15622,15.662653412418628,163.8,9.562059470341042,9.355591892583737,0
smt_21108,15.661427147487984,163.8,9.561310834852248,9.310126631985229,0
smt_856,15.661369724176023,163.8,9.561275777885239,9.354824323304252,0
smt_20866,15.659806153326098,163.8,9.5603212169268,9.30914070500228,0
smt_16038,15.659062678106839,163.8,9.559867324851549,9.353444852111723,0
smt_36206,15.658329033880918,163.8,9.559419434603734,9.308242286948579,0
smt_13702,15.656647762948708,163.8,9.558393017673202,9.307219700146836,0
smt_23147,15.655257257257478,163.8,9.557544113099803,9.351191191681536,0
smt_20867,15.655232523106793,163.8,9.557529012885709,9.306358920289494,0
smt_13866,15.653800042882555,163.8,9.556654482834281,9.305487655241398,0
smt_21107,15.65207644976889,163.8,9.555602228186135,9.304439330146872,0
smt_26355,15.64994142154981,163.8,9.55429879215495,9.303140763200334,0
smt_27620,15.64897172451188,163.8,9.553706791521293,9.300904231123598,0
smt_20868,15.64835303443403,163.8,9.553329080851054,9.302174675429809,0
rbt_1621994,8.626255741542234,90.3,9.552885649548433,4.489496195931572,0
smt_20869,15.647066040964164,163.8,9.552543370551993,9.299745055587055,0
smt_23009,15.646876784132436,163.8,9.552427829140681,9.301276792211711,0
smt_13891,15.645494530857452,163.8,9.551583962672435,9.298789149689625,0
smt_13717,15.64524102754088,163.8,9.551429198742905,9.343868663919677,0
smt_20807,15.643905252828684,163.8,9.550613707465619,9.343069861000338,0
smt_21104,15.643848353491913,163.8,9.550578970385782,9.297787826707046,0
smt_23095,15.642229576799638,163.8,9.549590706226885,9.342067797805628,0
smt_13932,15.641629890686007,163.8,9.549224597488404,9.296438400297987,0
smt_20808,15.641435447444525,163.8,9.549105889770772,9.341592905389666,0
smt_26469,15.639861968527306,163.8,9.5481452799312,9.340651961319708,0
smt_14054,15.639624605375424,163.8,9.548000369582066,9.295218645094408,0
smt_13955,15.638360896243036,163.8,9.547228874385247,9.33975431938237,0
smt_26351,15.637627451669909,163.8,9.546781106025584,9.294003837512495,0
smt_14437,15.63664520547301,163.8,9.546181444122718,9.338728338953823,0
smt_14864,15.635650809052764,163.8,9.545574364501077,9.292801507629088,0
smt_13280,15.634953646498033,163.8,9.545148746335794,9.337716792829672,0
smt_21052,15.634015323439009,163.8,9.544575899535413,9.291806693962101,0
smt_21226,15.633277865184885,163.8,9.544125680821052,9.336714685169257,0
smt_26348,15.632400905979722,163.8,9.543590296690917,9.290824696250736,0
smt_13930,15.631519612101545,163.8,9.54305226624026,9.335663263601164,0
smt_14369,15.630927230840593,163.8,9.542690617118799,9.289928308393156,0
smt_20870,15.629310085500602,163.8,9.541703348901466,9.288944653264108,0
smt_21225,15.629224602208451,163.8,9.54165116129942,9.334290871395577,0
smt_21053,15.627921565395425,163.8,9.540855656529564,9.288100063804476,0
smt_13546,15.626916470080113,163.8,9.540242045225954,9.332910638748354,0
smt_26347,15.62618510345368,163.8,9.539795545454016,9.287043834287783,0
smt_14536,15.624514761895957,163.8,9.538775800913282,9.2860278244354,0
smt_14549,15.62249796276326,163.8,9.537544543811514,9.284801077966494,0
smt_21056,15.621018521493529,163.8,9.536641344013143,9.283901187848866,0
smt_15181,15.619690202152485,163.8,9.535830404244496,9.283093220385357,0
smt_21055,15.618364066398147,163.8,9.535020797556866,9.282286581740378,0
smt_20871,15.616953420180273,163.8,9.534159597179654,9.289679431046439,0
smt_14721,15.615631648963761,163.8,9.53335265504503,9.288875231623278,0
smt_14748,15.614016003774934,163.8,9.532366302670898,9.287892232637569,0
smt_26346,15.612426086235782,163.8,9.531395657042601,9.286924887976738,0
smt_13752,15.611896974452037,163.8,9.531072633975601,9.320720967112656,0
smt_14823,15.611860910680111,163.8,9.531050617020824,9.32069938570322,0
smt_14761,15.61066886632965,163.8,9.530322873217125,9.28585575358455,0
smt_23041,15.610112722477256,163.8,9.52998334705571,9.319653244059046,0
smt_14786,15.608927039332542,163.8,9.529259486772004,9.284795985793414,0
smt_14797,15.608386116248031,163.8,9.528929252898676,9.31862002112076,0
smt_21100,15.607212652110515,163.8,9.528212852326321,9.283752914106149,0
smt_26430,15.60595969410858,163.8,9.527447920701208,9.317340816804132,0
smt_21054,15.605510050307297,163.8,9.527173412886016,9.282717014092567,0
smt_26429,15.604241676346653,163.8,9.5263990698087,9.316312606093069,0
smt_20810,15.60251367085105,163.8,9.525344121398687,9.315278421601066,0
smt_26425,15.60077345729542,163.8,9.524281719960573,9.314236934457247,0
smt_14845,15.598709664348318,163.8,9.52302177310642,9.313001795617675,0
smt_21220,15.596635672573566,163.8,9.521755599861761,9.311760558305453,0
smt_23225,15.594635137140662,163.8,9.520534271758645,9.310563287986058,0
smt_14674,15.590170282208877,163.8,9.517808475096993,9.308103922617528,0
smt_15154,15.588188651606625,163.8,9.516598688404533,9.30691798306412,0
smt_20812,15.586536293131765,163.8,9.515589922546864,9.305929105560748,0
smt_26427,15.58478617677134,163.8,9.514521475440379,9.304881727107679,0
smt_23277,15.583041946620051,163.8,9.513456621868164,9.303837875071588,0
smt_14301,15.581388823557086,163.8,9.51244738922899,9.302848550457943,0
smt_21222,15.579633316441658,163.8,9.511375651063283,9.301797956931614,0
smt_21101,15.487029634423891,163.8,9.454841046656831,9.264933346602687,0
smt_14960,15.484655690422626,163.8,9.453391752394765,9.263487987715122,0
smt_21103,15.483217146322987,163.8,9.452513520343702,9.262612140699396,0
smt_14563,15.481492118549816,163.8,9.451460389835052,9.261561870481346,0
smt_26349,15.47972367512327,163.8,9.45038075404351,9.260485167298528,0
smt_26350,15.478306583606045,163.8,9.449515618807109,9.259622382298597,0
smt_17100,15.476425173997876,163.8,9.44836701709272,9.258476901157126,0
smt_14503,15.475139385997595,163.8,9.447582042733574,9.253302139746053,0
smt_15080,15.474111868652262,163.8,9.446954742766948,9.25706846430097,0
smt_26354,15.473383479990805,163.8,9.446510061044448,9.25223305901814,0
smt_27622,15.472260735805426,163.8,9.445824625033836,9.251597688241185,0
smt_20875,15.471773811758919,163.8,9.445527357606178,9.255644958169905,0
smt_21109,15.47089295840016,163.8,9.444989596092892,9.250764911620115,0
smt_14517,15.470533522964532,163.8,9.444770160540006,9.254889819136745,0
smt_21110,15.469583445746686,163.8,9.44419013781849,9.249967609740153,0
smt_14778,15.468286199715815,163.8,9.443398168324672,9.253521556268911,0
smt_14066,15.4678678589201,163.8,9.443142771013491,9.248923068131704,0
smt_14909,15.466296555914273,163.8,9.442183489569151,9.252310179655009,0
smt_21111,15.46587018785991,163.8,9.441923191611666,9.247706778554667,0
smt_14146,15.463940536079113,163.8,9.440745138021436,9.246531902934501,0
smt_26356,15.462083733408361,163.8,9.439611558857361,9.245401381882017,0
smt_14607,15.460207382998854,163.8,9.438466045786846,9.244258959255612,0
smt_15188,15.458569276791833,163.8,9.437465980947394,9.243261592528706,0
smt_14159,15.457198878572127,163.8,9.436629351997635,9.242427220762165,0
smt_14181,15.455803985431753,163.8,9.435777768883852,9.241577935312678,0
smt_14620,15.454102499274846,163.8,9.434739010546304,9.240541979673347,0
smt_20876,15.452157543579247,163.8,9.433551613906744,9.239357786878866,0
smt_26384,15.450139490585856,163.8,9.432319591322257,9.238129088639061,0
smt_14740,15.447722109186333,163.8,9.430843778502036,9.236657258139205,0
rbt_626678,8.447377084547252,90.3,9.354791898723425,4.400706504554539,0
smt_26391,15.301369242453358,163.8,9.341495264013039,9.194466867145875,0
smt_21161,15.299711428392737,163.8,9.340483167516933,9.193457008870103,0
smt_36560,15.298062533259188,163.8,9.33947651603125,9.180035423478307,0
smt_14907,15.297831600045493,163.8,9.339335531163304,9.19231191117578,0
smt_14427,15.29627196607094,163.8,9.338383373669682,9.178943794365866,0
smt_26390,15.296148415416903,163.8,9.338307945919965,9.19128659969174,0
smt_13545,15.295018024314107,163.8,9.337617841461602,9.174664554486805,0
smt_36562,15.294937243464492,163.8,9.337568524703595,9.17813007287893,0
smt_36563,15.294894821065833,163.8,9.337542625803316,9.178104210085468,0
smt_36561,15.294866926582324,163.8,9.337525596204104,9.17808720434376,0
smt_14065,15.294377296706957,163.8,9.337226676866273,9.190207723809525,0
smt_21154,15.293398759970824,163.8,9.336629279591467,9.173677432186505,0
smt_20926,15.293301585868482,163.8,9.336569954742663,9.177132887281443,0
smt_27624,15.292487679340724,163.8,9.336073064310575,9.189056665209312,0
smt_16842,15.291437352075658,163.8,9.335431838874026,9.172481736304777,0
smt_14247,15.291308258835112,163.8,9.335353027371864,9.17591764745042,0
smt_23173,15.290842031602814,163.8,9.335068395361914,9.18805422107875,0
smt_14040,15.289152247773918,163.8,9.334036781302759,9.174603228030133,0
smt_23120,15.28903285308698,163.8,9.333963890773491,9.180754249948798,0
smt_16817,15.288957699969751,163.8,9.333918009749542,9.170970114684417,0
smt_14587,15.28730800051009,163.8,9.332910867222276,9.169964441827725,0
smt_15289,15.287204284348661,163.8,9.332847548442405,9.179640635187798,0
smt_14163,15.285886149391697,163.8,9.332042826246456,9.178837879720957,0
smt_14588,15.285224444655306,163.8,9.331638855100918,9.168694287042543,0
smt_20927,15.28450188015577,163.8,9.331197729032825,9.17799484838833,0
smt_26392,15.283199169515076,163.8,9.330402423391376,9.17720148752213,0
smt_16855,15.283070469820531,163.8,9.330323852149286,9.167381205548429,0
smt_14735,15.281525069893123,163.8,9.329380384550136,9.176181948425665,0
smt_26387,15.281014048223954,163.8,9.32906840550913,9.166127594652302,0
smt_27623,15.279536435196565,163.8,9.328166321853825,9.1652268307896,0
smt_26389,15.278149046860705,163.8,9.32731932042778,9.164381069182305,0
smt_34714,26.571084201232903,286.65,9.269521786580466,7.115847372199435,0
smt_34721,26.571073099268432,286.65,9.269517913576987,7.115838703295215,0
smt_34712,26.57106614610628,286.65,9.269515487914278,7.11583327534326,0
smt_34720,26.570862346822175,286.65,9.269444391007212,7.115674169911205,0
smt_34711,26.57057830724668,286.65,9.269345301673358,7.115452429280233,0
smt_34719,26.570270395053512,286.65,9.269237884197981,7.115212063024398,0
smt_34710,26.57000031735116,286.65,9.269143665568171,7.115001240848737,0
smt_34718,26.569729343856682,286.65,9.269049134434566,7.114789728174724,0
smt_34709,26.569470240616806,286.65,9.268958744328208,7.114587489335613,0
smt_34708,26.56920526802846,286.65,9.268866306655664,7.114380677530286,0
smt_34707,26.568729565790342,286.65,9.268700354366072,7.114009411697978,0
smt_34706,26.568360902098924,286.65,9.268571743275396,7.113721703745086,0
smt_34717,26.567965172059704,286.65,9.268433689886518,7.113412891090111,0
smt_34705,26.567629037636944,286.65,9.268316426874916,7.113150599239888,0
smt_34716,26.567297019139932,286.65,9.268200599734845,7.112891532514198,0
smt_34704,26.567018359585326,286.65,9.268103387261583,7.112674110618328,0
smt_34703,26.56674118114404,286.65,9.268006691485798,7.112457853622893,0
smt_34702,26.56629765288919,286.65,9.267851963331307,7.112111828331995,0
smt_34715,26.565928667745705,286.65,9.26772324009967,7.111823976955574,0
smt_34701,26.565659267711375,286.65,9.267629257879427,7.111613823746758,0
smt_34700,26.565387252587755,286.65,9.267534363365693,7.111401639540413,0
smt_34713,26.565069132886055,286.65,9.267423384924491,7.111153502845099,0
rbt_635543,5.737754129675103,61.95,9.261911428046979,3.769680589759368,0
rbt_606150,5.736296419198959,61.95,9.259558384501952,4.3500888646756275,0
smt_3613,15.14005655425031,163.8,9.243013769383584,9.143803133956593,0
smt_14937,15.137608398377852,163.8,9.241519168728846,9.142317590430126,0
smt_15269,15.135428799091251,163.8,9.24018852203373,9.140995007992396,0
rbt_1607272,8.255158170212052,90.3,9.141924883955761,4.301943432046783,0
rbt_623007,5.64474279099213,61.95,9.111772059712882,4.281342185283081,0
sbt_22748,19.54236923036193,216.3,9.034844766695297,4.252325058628691,0
sbt_7427,19.542360923413888,216.3,9.034840926220014,4.2523210812711625,0
sbt_34383,11.555285178111836,128.1,9.020519264724307,5.315075963981963,0
sbt_34392,11.555282020964292,128.1,9.020516800128252,5.656716275684626,0
sbt_34384,11.54036706260773,128.1,9.008873585173873,4.352556379840772,0
rbt_1630759,6.833113421469699,76.65,8.914694613789562,4.194220730544111,0
rbt_606122,5.515624355865489,61.95,8.903348435618222,4.185125666249614,0
rbt_1229546,8.01004135631905,90.3,8.870477692490644,4.172378670639524,0
rbt_1638606,5.458819182105873,61.95,8.811653239880343,4.143562345114022,0
rbt_605905,7.813887086523095,90.3,8.653252587511732,4.0681569343836745,0
rbt_1607283,7.740652877539581,90.3,8.572151580885471,4.033614823844817,0
smt_24122,28.06622739584385,327.6,8.567224479805814,6.479174999111964,0
smt_18806,28.06621995529603,327.6,8.567222208576322,6.479169359995471,0
smt_10381,28.066167204263156,327.6,8.567206106307435,6.479129354445355,0
smt_18545,28.06600511495861,327.6,8.567156628497743,6.479006433168686,0
smt_23134,28.0656842183641,327.6,8.567058674714316,6.478763095637247,0
smt_4527,28.06538128385045,327.6,8.566966203861554,6.4785333986292954,0
smt_4627,28.06504335929626,327.6,8.566863052288236,6.47827719336428,0
smt_4591,28.064835460407114,327.6,8.566799591088863,6.47811958192998,0
smt_4693,28.06457550982741,327.6,8.566720241095057,6.477922522075541,0
smt_4863,28.064330527255187,327.6,8.566645460090106,6.477736821765743,0
smt_4387,28.064062420955853,327.6,8.566563620560395,6.477533607883082,0
smt_31415,28.0637427961285,327.6,8.56646605498428,6.477291364635531,0
smt_31414,28.063465741825585,327.6,8.566381484073743,6.477081402844902,0
smt_31413,28.06329724856434,327.6,8.566330051454315,6.476953720575551,0
smt_31412,28.06323074919628,327.6,8.566309752501915,6.4769033295610825,0
smt_31411,28.063142256969343,327.6,8.566282740222633,6.476836273310262,0
smt_31416,28.06312612959994,327.6,8.566277817338198,6.476824053460139,0
smt_31417,28.063114147391513,327.6,8.566274159765419,6.476814973268698,0
smt_31408,28.053604488513994,327.6,8.56337133349023,6.474756214456291,0
smt_31407,28.053317785241976,327.6,8.56328381722893,6.4664353204883716,0
smt_6830,28.052971895233778,327.6,8.563178234198345,6.466172717194884,0
smt_6842,28.052406966955953,327.6,8.563005789669093,6.465743872167629,0
smt_7020,28.05193713798619,327.6,8.562862374232658,6.465387269736971,0
smt_22791,28.0516273748403,327.6,8.56276781893782,6.4651521835925045,0
smt_7012,28.051224729413153,327.6,8.562644911298275,6.464846637336059,0
smt_6826,28.05087974060827,327.6,8.562539603360277,6.4645848708163305,0
smt_17964,28.050494678753697,327.6,8.562422063111628,6.464292727764264,0
smt_17962,28.036364145178542,327.6,8.558108713424463,6.461279291179081,0
smt_29388,28.036040037084184,327.6,8.558009779329726,6.4610333289219435,0
smt_17961,28.035654708572327,327.6,8.55789215768386,6.460740935900034,0
smt_19163,28.035341134842096,327.6,8.557796439206989,6.46050301458924,0
smt_29389,28.035069206686746,327.6,8.557713433054563,6.460296708236409,0
smt_17795,28.034642472283473,327.6,8.557583172247702,6.459972984942475,0
smt_22739,28.03414711862741,327.6,8.557431965392981,6.459597254762541,0
smt_29420,28.03370299389189,327.6,8.557296396181895,6.459260425942518,0
smt_17794,28.033568278286886,327.6,8.557255274202346,6.45915826460372,0
smt_18202,28.03333773812345,327.6,8.557184901747084,6.458983443525677,0
smt_10747,28.032964571144706,327.6,8.557070992412912,6.458700490736713,0
smt_17776,28.032562352388,327.6,8.556948215014652,6.458395542301347,0
smt_29390,28.0320990786278,327.6,8.556806800557936,6.458044346287903,0
rbt_605822,7.4164791545180595,90.3,8.213155209876035,3.8669579362689137,0
rbt_1107340,7.41347205889509,90.3,8.209825092907076,3.864828466565395,0
rbt_1607287,7.404405630128896,90.3,8.199784750973308,3.85782380452109,0
rbt_1626486,7.402810775595442,90.3,8.198018577625074,3.852584361650079,0
smt_12228,26.671842927630774,327.6,8.141588195247488,6.250750480778261,0
smt_24626,26.671529319205046,327.6,8.141492466179805,6.250535001060659,0
smt_6431,26.671182982831688,327.6,8.141386746896119,6.250297045930785,0
smt_6957,26.670864417083436,327.6,8.141289504604222,6.250078182002947,0
smt_24627,26.670481580412847,327.6,8.141172643593665,6.24981517595485,0
smt_24628,26.670173932258905,327.6,8.141078733900764,6.249603834962809,0
smt_24629,26.66984503371022,327.6,8.140978337518382,6.249377906723514,0
smt_24630,26.669401986701377,327.6,8.140843097283692,6.2490735849118915,0
smt_6627,26.66906964259368,327.6,8.14074164914337,6.248845316544809,0
smt_6447,26.668530960722713,327.6,8.140577216337824,6.248475350872986,0
smt_6527,26.615363298292745,327.6,8.124347771151632,6.2397775557595,0
smt_24631,26.61503120156792,327.6,8.124246398525004,6.239550152909408,0
smt_1873,26.614671117335195,327.6,8.12413648270305,6.239303598171303,0
smt_24632,26.614324487821357,327.6,8.124030673938144,6.239066268458399,0
smt_24633,26.61393760877007,327.6,8.123912578989643,6.238801395131276,0
smt_24634,26.61354448388182,327.6,8.123792577497504,6.2385322611812875,0
smt_6535,26.612534787445924,327.6,8.123484367352235,6.237841100980268,0
smt_6544,26.612154533739492,327.6,8.123368294792273,6.237580841978038,0
smt_19172,26.611685789133876,327.6,8.123225210358326,6.237260036722497,0
smt_19173,26.611368626235084,327.6,8.123128396286655,6.237042985345609,0
smt_6686,26.611077941838005,327.6,8.123039664785715,6.236844063441938,0
smt_19174,26.610217572246082,327.6,8.122777036705154,6.23625534279705,0
smt_24636,26.60970584535235,327.6,8.122620831914636,6.2359052212950195,0
smt_24637,26.609272013191603,327.6,8.12248840451514,6.235608415636946,0
smt_24635,26.60879546486231,327.6,8.122342937992158,6.235282407489216,0
smt_24665,26.608308091245377,327.6,8.122194167046818,6.234949017291922,0
smt_6737,26.607837018123043,327.6,8.12205037183243,6.234626800186479,0
smt_22843,26.6073809789844,327.6,8.121911165746152,6.234314887621508,0
smt_19223,26.607030977782934,327.6,8.121804327772567,6.23407551492172,0
smt_6510,26.606629662930754,327.6,8.121681826291438,6.233801062942564,0
smt_24666,26.575697413087006,327.6,8.112239747584555,6.229518895956335,0
smt_6687,26.575348657192876,327.6,8.112133289741415,6.229280500192736,0
smt_22844,26.575058668658578,327.6,8.112044770652801,6.229082284645318,0
smt_19220,26.574671830661046,327.6,8.111926688235972,6.228817882457908,0
smt_6683,26.57431975063702,327.6,8.111819215701166,6.228577249994129,0
smt_24667,26.57381344494128,327.6,8.111664665732992,6.228231231780851,0
smt_6502,26.573189378283438,327.6,8.111474169195187,6.22780476826452,0
smt_19218,26.57295724748761,327.6,8.111403311198904,6.2276461485256265,0
smt_29393,26.57251301560046,327.6,8.11126770927975,6.227342610541275,0
smt_24668,26.571236151990256,327.6,8.110877946272971,6.226470253716492,0
smt_6394,26.56493482896669,327.6,8.108954465496547,6.222167654465575,0
smt_24450,26.564566928493953,327.6,8.108842163764942,6.221916577089996,0
smt_24451,26.564178112367735,327.6,8.108723477523728,6.221651240212243,0
smt_24452,26.563822674268685,327.6,8.108614979935496,6.221408694401295,0
smt_24453,26.563446363496592,327.6,8.108500110957445,6.221151918957248,0
smt_6993,26.563016952761966,327.6,8.108369033199622,6.220858928016239,0
smt_17113,26.562462085825285,327.6,8.108199659897828,6.220480364295295,0
smt_19165,26.56154746278165,327.6,8.10792047093457,6.219856419791611,0
smt_24454,26.561130504613665,327.6,8.107793194326515,6.21957200364151,0
smt_24455,26.56073168191386,327.6,8.107671453575659,6.219299974152551,0
smt_24456,26.560370447881386,327.6,8.10756118677698,6.219053596949283,0
smt_24457,26.559993883796107,327.6,8.107446240475001,6.218796777670483,0
smt_24458,26.55962704027403,327.6,8.10733426137791,6.218546601415167,0
smt_24459,26.55922805664711,327.6,8.107212471504003,6.218274521732924,0
smt_24505,26.55883151252049,327.6,8.107091426288306,6.218004121274948,0
smt_24506,26.55850226360116,327.6,8.106990922955177,6.217779620820415,0
smt_24507,26.55811850305833,327.6,8.106873779932334,6.217517964766073,0
smt_29445,26.55774658359174,327.6,8.10676025140163,6.217264396169324,0
smt_6650,26.557373357391135,327.6,8.106646323989967,6.2170099504848295,0
smt_6653,26.557010519317924,327.6,8.106535567557364,6.216762600059551,0
smt_6140,26.556640593851345,327.6,8.10642264769577,6.216510431639868,0
smt_6420,26.55626512445932,327.6,8.106308035549242,6.216254497984441,0
smt_6426,26.555871441296894,327.6,8.10618786364374,6.215986164199774,0
smt_24508,26.555507084315376,327.6,8.106076643563911,6.2157378327675685,0
smt_24509,26.555149676867753,327.6,8.105967544831426,6.215494250648892,0
smt_24510,26.554753170871624,327.6,8.105846511255073,6.215224036790658,0
smt_6389,26.55430077739529,327.6,8.10570841800833,6.214915755931256,0
smt_32671,26.554286281024122,327.6,8.105703992986605,6.2149058770095715,0
smt_29446,26.553862150471,327.6,8.1055745270058,6.214616875616643,0
smt_24511,26.553464085165114,327.6,8.105453017449667,6.214345651676531,0
rbt_606132,4.948915015313776,61.95,7.9885633822659825,3.7535405849516645,0
rbt_623433,7.1653432317752515,90.3,7.935042338621541,3.7342030241153252,0
rbt_626698,7.118060661708724,90.3,7.8826806884924965,3.7051434700275383,0
rbt_1607252,5.999344708809784,76.65,7.8269337362162865,3.6814560313704363,0
rbt_637356,4.68966498084664,61.95,7.570080679332753,3.5588525872161667,0
rbt_631391,6.74546967976657,90.3,7.4700660905499126,5.657653417635667,0
smt_37838,15.940845123000216,216.3,7.369785077670002,7.2412627792455915,0
smt_37842,15.939724799249044,216.3,7.369267128640335,7.240759309160711,0
smt_37843,15.93902773913013,216.3,7.368944863213189,7.2404460531638755,0
smt_38001,15.937679600169922,216.3,7.368321590462284,7.239840206219861,0
smt_38002,15.937625422838174,216.3,7.368296543152184,7.239815859701441,0
smt_38000,15.937598786526381,216.3,7.368284228629856,7.239803889495291,0
smt_37845,15.936361690833142,216.3,7.367712293496598,7.239247946990659,0
smt_37846,15.93490183357411,216.3,7.367037371046744,7.238591899112023,0
smt_37847,15.933533129308652,216.3,7.366404590526423,7.237976816799638,0
smt_37848,15.932530929219789,216.3,7.365941252528797,7.237526439195174,0
smt_37831,15.932017325215822,216.3,7.365703802688775,7.22300319321614,0
smt_37858,15.93132558491387,216.3,7.365383996723934,7.222692181948172,0
smt_37849,15.931105812317943,216.3,7.365282391270431,7.23688600939886,0
smt_37859,15.929872479365839,216.3,7.364712195730855,7.2220388573225796,0
smt_37850,15.929676251870626,216.3,7.364621475668343,7.236243584996676,0
smt_37860,15.928822131335355,216.3,7.364226597935901,7.221566616204515,0
smt_37851,15.92829688382392,216.3,7.3639837650596025,7.235623718477682,0
smt_37861,15.927413171858342,216.3,7.363575206591928,7.220933143778187,0
smt_37852,15.92691273824672,216.3,7.3633438456989,7.235001707171601,0
smt_37862,15.926077799000359,216.3,7.362957835876263,7.220332758162582,0
smt_37853,15.925582840225735,216.3,7.362729006114533,7.234404075750011,0
smt_37863,15.92497530858415,216.3,7.362448131569185,7.219837078313955,0
smt_37864,15.924308087674119,216.3,7.362139661430475,7.2195370963639975,0
smt_37854,15.924171769693636,216.3,7.362076638785776,7.233769969092633,0
smt_37923,15.9236403472977,216.3,7.361830951131624,7.219236881299036,0
smt_37855,15.922797914507852,216.3,7.361441476887586,7.233152588348415,0
smt_37924,15.922231512098618,216.3,7.361179617243928,7.218603472870416,0
smt_37856,15.921305939101542,216.3,7.360751705548562,7.232482129350475,0
smt_37925,15.92080319134214,216.3,7.360519274776764,7.217961305974671,0
smt_37932,15.901087381746406,216.3,7.351404244912809,7.206341582244693,0
smt_37933,15.899739861637334,216.3,7.350781258269687,7.205735600897242,0
smt_37934,15.898393640286761,216.3,7.3501588720696995,7.205130205609783,0
smt_37935,15.89705581524068,216.3,7.349540367656347,7.204528588095731,0
smt_37936,15.895832344744843,216.3,7.348974731735941,7.203978397370462,0
smt_37937,15.894480561874468,216.3,7.348349774329388,7.203370506886298,0
smt_37938,15.8931302466864,216.3,7.347725495462967,7.202763278454555,0
smt_37939,15.891757230970294,216.3,7.3470907216691135,7.202145843747978,0
smt_37940,15.890400892951972,216.3,7.346463658322687,7.201535910952468,0
smt_37941,15.889073404317317,216.3,7.345849932647858,7.200938953432353,0
smt_37942,15.887774092438168,216.3,7.345249233674603,7.200354668558543,0
smt_37943,15.886463405876087,216.3,7.344643275948261,7.1997652705011825,0
smt_37944,15.885142357454658,216.3,7.344032527718287,7.199171214801967,0
smt_37945,15.88401972222535,216.3,7.343513510044082,7.198666384050387,0
smt_37873,15.883061370745892,216.3,7.3430704441728585,7.198235430109841,0
smt_37874,15.881717706479781,216.3,7.342449240166333,7.197631209457696,0
smt_37875,15.880271196644161,216.3,7.341780488508627,7.196980743296746,0
smt_37876,15.878782864431173,216.3,7.341092401493839,7.196311472855311,0
smt_37877,15.877301400045733,216.3,7.340407489618923,7.19564529316613,0
smt_37878,15.875827649869949,216.3,7.339726144183979,7.19498258475296,0
smt_37879,15.874406932733029,216.3,7.3390693170286765,7.19434372622036,0
smt_37880,15.87289754651573,216.3,7.338371496308706,7.193664998025604,0
smt_37881,15.871529470541013,216.3,7.337739006260293,7.193049815180067,0
smt_37882,15.870075090212607,216.3,7.337066615909666,7.19239582612025,0
smt_37883,15.868642972778892,216.3,7.33640451815945,7.191751850246061,0
smt_37884,15.867162762226691,216.3,7.335720185957785,7.191086250861274,0
smt_37885,15.865726633177665,216.3,7.335056233554167,7.190440475724354,0
smt_37886,15.864296195162785,216.3,7.3343949122342975,7.189797261863088,0
smt_37841,15.864090951256063,216.3,7.334300023696747,7.214801427225431,0
smt_37837,15.863252498021232,216.3,7.333912389283973,7.214428580704784,0
smt_37887,15.862881090425258,216.3,7.333740679808256,7.189160945022014,0
smt_37888,15.861413318636162,216.3,7.333062098306131,7.188500948183602,0
smt_37889,15.86046533165317,216.3,7.33262382415773,7.1880746785507865,0
smt_37890,15.859475533673931,216.3,7.332166219913976,7.187629609339414,0
smt_37891,15.857507187441534,216.3,7.331256212409401,7.186744532581712,0
smt_37892,15.856051536903683,216.3,7.330583234814463,7.186089994780883,0
smt_37893,15.854683466881763,216.3,7.329950747518152,7.185474839952292,0
smt_37894,15.853265936034813,216.3,7.329295393451138,7.184837447144564,0
smt_37895,15.851908753734467,216.3,7.328667939775528,7.184227192108612,0
smt_37896,15.850474694830499,216.3,7.328004944443133,7.183582371804325,0
smt_37897,15.849018239019628,216.3,7.327331594553687,7.182927483125977,0
smt_37898,15.847661227676392,216.3,7.326704219915115,7.182317311277505,0
smt_37903,15.847494027879653,216.3,7.3266269199628535,7.175340327030256,0
smt_37904,15.846443196943138,216.3,7.326141098910373,7.174868319796754,0
smt_37905,15.845056430169016,216.3,7.325499967715681,7.174245420517774,0
smt_37906,15.843674686938453,216.3,7.324861159009918,7.173624779855955,0
smt_40683,15.842191464968566,216.3,7.324175434567066,7.172958560215789,0
smt_37908,15.840761009510231,216.3,7.323514105182722,7.1723160441790235,0
smt_37909,15.839223135872013,216.3,7.322803114134079,7.171625281836456,0
smt_37910,15.837753438875769,216.3,7.322123642568547,7.170965144748511,0
smt_37911,15.836255227076022,216.3,7.3214309880148045,7.170292202591433,0
smt_40685,15.836167954099233,216.3,7.321390639897935,7.170253002846098,0
smt_37912,15.834778400809265,216.3,7.3207482204388645,7.1696288683627865,0
smt_37913,15.833306649430481,216.3,7.32006779908945,7.168967816080975,0
smt_37914,15.831788088433047,216.3,7.319365736677322,7.16828574135691,0
smt_37915,15.83034602011248,216.3,7.318699038424632,7.1676380264739885,0
smt_37916,15.82924520407916,216.3,7.318190108219675,7.167143589006144,0
smt_37917,15.827764238588275,216.3,7.317505426994117,7.166478407542255,0
smt_37918,15.826263897766259,216.3,7.316811788148987,7.165804526130601,0
smt_37919,15.824808723240784,216.3,7.3161390306244956,7.165150933784626,0
smt_37920,15.82328860175382,216.3,7.315436246765519,7.164468173036032,0
smt_37993,15.821741136103435,216.3,7.314720821129652,7.163773133448969,0
smt_37987,15.821103934157806,216.3,7.3144262293840985,7.163486936872457,0
smt_37986,15.819830003267741,216.3,7.313837264571308,7.162914757588328,0
smt_37948,15.792483028156942,216.3,7.301194187774823,7.149933568185724,0
smt_37947,15.79076018115087,216.3,7.3003976796814,7.149158232302757,0
smt_37985,15.789084901432203,216.3,7.299623162936755,7.148404306361453,0
smt_37984,15.787254871999199,216.3,7.298777102172538,7.147580742000767,0
smt_37983,15.78539608318534,216.3,7.297917745346898,7.146744238874871,0
smt_37963,15.783508190873754,216.3,7.29704493336743,7.145894642356262,0
smt_37959,15.756039779467523,216.3,7.284345714039539,7.133042168126586,0
smt_37958,15.754154932228264,216.3,7.283474309860501,7.132191445364405,0
smt_37957,15.75223533318967,216.3,7.282586839200032,7.131325041144883,0
smt_37956,15.750353506721623,216.3,7.281716831586511,7.130475689114725,0
smt_37955,15.74846274509872,216.3,7.280842693064596,7.129622307890371,0
smt_37962,15.748024042755109,216.3,7.280639871823906,7.129763360090283,0
smt_37954,15.746865599022614,216.3,7.280104299132045,7.12890145070072,0
smt_37960,15.746328145607567,216.3,7.279855823212005,7.129000207551059,0
smt_37953,15.742934591361998,216.3,7.278286912326397,7.127150092374275,0
smt_37952,15.741107334940416,216.3,7.277442133583179,7.126325139242536,0
smt_37951,15.739212351273153,216.3,7.2765660431221235,7.12546961278532,0
smt_37981,15.737674300248619,216.3,7.275854970064086,7.124775233043947,0
smt_37980,15.726786722850758,216.3,7.270821416019767,7.119782113393316,0
smt_37979,15.725602193878238,216.3,7.270273783577548,7.11924734685106,0
rbt_605855,5.572372456767816,76.65,7.269892311503999,3.420733125690017,0
smt_37978,15.723990523834798,216.3,7.269528674912065,7.118519745842325,0
smt_37977,15.722170910701818,216.3,7.268687429820535,7.117698270528259,0
smt_37976,15.720533415373284,216.3,7.267930381587279,7.1169590162685195,0
smt_37975,15.718814591226343,216.3,7.267135733345512,7.116183048679226,0
smt_37990,15.71707358310604,216.3,7.26633082899031,7.1153970691569155,0
smt_37974,15.7154664474508,216.3,7.265587816667035,7.114671529223188,0
smt_37991,15.713730541949053,216.3,7.264785271358785,7.113887859167693,0
smt_37973,15.712713200903295,216.3,7.264314933381089,7.113428584618603,0
smt_37989,15.706478428867495,216.3,7.261432468269762,7.107147339447901,0
smt_37969,15.703800947384813,216.3,7.2601946127530335,7.1062888538047675,0
smt_37968,15.702482143372164,216.3,7.259584902160038,7.105692852411484,0
smt_37972,15.702223330190938,216.3,7.259465247429929,7.105225715878746,0
smt_37967,15.700769546043636,216.3,7.258793132706258,7.104918888250679,0
smt_37971,15.700498321189322,216.3,7.258667739800888,7.104446698473608,0
smt_37970,15.699290950979881,216.3,7.258109547378585,7.103901449570384,0
smt_37966,15.699026745002367,216.3,7.257987399446309,7.104131277215476,0
smt_37996,15.697329123073823,216.3,7.257202553432188,7.1033640864896554,0
smt_37995,15.695942001292686,216.3,7.256561258110349,7.102737219645081,0
smt_37994,15.695913689059697,216.3,7.256548168774709,7.10272442443697,0
smt_37965,15.69590024126717,216.3,7.256541951579829,7.1027183472106,0
smt_37964,15.6898561183468,216.3,7.253747627529726,7.099986914274315,0
rbt_1607255,6.500644017457306,90.3,7.198941326087825,3.384424888960133,0
rbt_636933,5.408462245071569,76.65,7.056049895722856,3.3205347224321446,0
rbt_605910,4.249615335723854,61.95,6.859750340151501,3.2224313418281554,0
rbt_627343,6.152450139433196,90.3,6.813344561941524,3.2016959701306464,0
rbt_1607304,4.139061748560777,61.95,6.681294186538785,3.1379405152316644,0
rbt_1607305,5.845451830331669,90.3,6.473368582870065,3.043890321037683,0
rbt_1607285,3.9713448198518417,61.95,6.410564680955353,3.0100842176157214,0
rbt_606103,4.819556593565053,76.65,6.287745066621072,2.9558968183682697,0
rbt_3405846,4.81149014315256,76.65,6.277221321790684,2.952487210596232,0
rbt_605825,5.585410309051357,90.3,6.18539347624735,2.9092594993234946,0
rbt_606109,3.8268076189410722,61.95,6.177252007975903,2.9021051103590487,0
sbt_4580,10.043304823212779,163.8,6.131443726015127,2.886325094597611,0
rbt_1631852,5.522554920447386,90.3,6.115786179897438,2.8749237680947144,0
rbt_605993,5.487582280529802,90.3,6.077056789069548,2.856157089284089,0
rbt_630753,5.453920415342818,90.3,6.03977897601641,2.841108555896771,0
rbt_621999,5.448530977345678,90.3,6.033810606141393,2.8364375722021347,0
sbt_6049,9.84541501963983,163.8,6.010631880121996,2.8295249501815136,0
sbt_28279,12.971662829896156,216.3,5.9970701941267475,2.978484339973802,0
sbt_20214,12.971655390765099,216.3,5.99706675486135,2.9784846325475924,0
smt_6110,19.448355757371516,327.6,5.936616531554186,3.3780428894971597,0
rbt_607384,3.6041445907577176,61.95,5.817828233668632,2.7335780732681187,0
rbt_1607278,4.449878239208975,76.65,5.8054510622426285,2.7279682830896648,0
smt_24515,18.97387502274961,327.6,5.791781142475461,3.351938083951612,0
smt_6552,18.973475359398297,327.6,5.791659145115475,3.3518417878278046,0
smt_6549,18.972947272233245,327.6,5.791497946347144,3.3517146039442864,0
smt_23959,18.97248612416124,327.6,5.791357180757398,3.351603592943336,0
smt_22744,18.97193287987014,327.6,5.791188302768662,3.3514704750840703,0
smt_19175,18.971472730397284,327.6,5.791047842001613,3.351359809540771,0
smt_19177,18.970948760637413,327.6,5.7908879000724705,3.3512338534003736,0
smt_19176,18.970398057326225,327.6,5.790719797718627,3.3511015375432187,0
smt_19164,18.97015826861859,327.6,5.790646602142426,3.351043945580901,0
smt_32311,18.969745650920164,327.6,5.79052065046403,3.3509448742915193,0
smt_39119,18.969250712722175,327.6,5.790369570428014,3.350826088620297,0
smt_32312,18.969227475947406,327.6,5.790362477395423,3.3508205129126396,0
smt_32310,18.96920852536447,327.6,5.790356692724196,3.3508159657442014,0
smt_32309,18.968750519922086,327.6,5.790216886423102,3.3507060972661122,0
smt_32314,18.96854111970349,327.6,5.790152966942457,3.3506558809386093,0
smt_32313,18.96852521755103,327.6,5.790148112805564,3.350652067871858,0
smt_6802,18.968342879945727,327.6,5.790092454195887,3.4106453043009695,0
smt_24514,18.96777090572419,327.6,5.789917858890168,3.41050885597396,0
smt_24513,18.96717686765089,327.6,5.789736528586962,3.410367219380277,0
smt_19166,18.966710719084716,327.6,5.789594236594846,3.410256129191307,0
smt_6414,18.96625567477965,327.6,5.789455334181821,3.4101477308805577,0
smt_18852,18.965795116639814,327.6,5.789314748669051,3.4100380649522286,0
smt_6403,18.96528407393396,327.6,5.7891587527270945,3.4099164318585307,0
smt_1832,18.96483979651172,327.6,5.789023136908338,3.4098107357281133,0
smt_1831,18.964406950790817,327.6,5.788891010619907,3.4097078005879453,0
smt_1829,18.96355710859852,327.6,5.788631596031293,3.409505818067592,0
smt_1828,18.96294189008822,327.6,5.78844380039323,3.409359696889855,0
rbt_1628760,5.226896436779017,90.3,5.788368147042101,2.71982732009862,0
rbt_3433894,5.207044286711904,90.3,5.766383484730791,2.711552854131059,0
smt_6350,18.868188787013416,327.6,5.759520386756232,3.3347841011162447,0
smt_24517,18.865941673665688,327.6,5.758834454720906,3.334465574126764,0
smt_24520,18.86525293151284,327.6,5.758624215968509,3.334299516495633,0
smt_19116,18.864927700512787,327.6,5.758524939106467,3.334221139650978,0
rbt_1607357,4.388027875525769,76.65,5.724759133106026,2.690865688781179,0
rbt_605806,4.791919660971503,90.3,5.306666291219827,2.494014917359046,0
rbt_622714,4.716924414512579,90.3,5.2236150769796,2.456585820466253,0
rbt_1607258,3.945603486416855,76.65,5.147558364536014,2.421188999700192,0
rbt_627328,4.604358325807989,90.3,5.098957171437419,2.4004395271616876,0
sbt_5830,8.269831104679543,163.8,5.048736938143799,2.375797376982813,0
rbt_621168,3.831994688955954,76.65,4.999340755324141,2.3500349959982736,0
rbt_605815,4.506538089338552,90.3,4.990629113331729,2.34750921592045,0
rbt_1107330,4.4996763936030515,90.3,4.983030336216004,2.3461309014453913,0
rbt_621171,3.0768546929130762,61.95,4.966674241990438,2.333457283435179,0
rbt_3422597,4.483997499043091,90.3,4.965667219316823,2.3359745013820787,0
rbt_606127,3.0541299846637564,61.95,4.929991904219139,2.316263704412368,0
rbt_635966,3.037201842274617,61.95,4.902666412065564,2.3036739616684776,0
rbt_1124041,4.423096532131508,90.3,4.8982242880747595,2.3043733939251494,0
rbt_605921,3.64690119728833,76.65,4.757861966455746,2.2369116124366237,0
sbt_14007,7.740652589139573,163.8,4.72567313134284,2.2236592699469497,0
rbt_627336,4.225309224345084,90.3,4.679190724634644,2.1987038898657443,0
rbt_1627321,4.206745035206272,90.3,4.6586323756437125,2.189994330085684,0
rbt_1607355,4.194371298864217,90.3,4.644929456106553,2.183485226282942,0
rbt_605902,2.8751015235820057,61.95,4.641003266476199,2.181007822374433,0
sbt_25907,9.954995028219791,216.3,4.60240176986583,1.7713528901040905,0
sbt_21361,9.95498820881438,216.3,4.602398617112519,1.7713530343043702,0
sbt_20771,9.954982763901658,216.3,4.602396099815838,1.7713553050709008,0
smt_37926,15.90577846729747,346.5,4.590412256074306,4.499821044135302,0
smt_37927,15.904992796855877,346.5,4.590185511358118,4.4996004854819285,0
smt_37928,15.90419850694102,346.5,4.589956279059457,4.499377507644302,0
smt_37929,15.903398637964058,346.5,4.589725436641864,4.499152964235274,0
smt_37930,15.902607383013528,346.5,4.589497080234785,4.498930839536619,0
smt_37931,15.90188235924999,346.5,4.589287838167385,4.498727307970856,0
sbt_35173,5.845451425342003,128.1,4.5631939307900105,2.1456928496938183,0
rbt_1607358,3.492473753074197,76.65,4.556391067285319,2.1421476289112618,0
sbt_21952,9.845414161002502,216.3,4.551740250116736,2.14274655565423,0
sbt_20840,7.4164791382449256,163.8,4.527765041663569,2.131784446946931,0
sbt_6273,7.404405320576109,163.8,4.520393968605683,2.1267488233494913,0
smt_6536,12.874028235196203,286.65,4.491201198393932,2.6381240832132247,0
smt_6703,12.87342379947314,286.65,4.490990336463681,2.6379773399103112,0
smt_6514,12.872830982761542,286.65,4.490783527912626,2.637833570252211,0
smt_6984,12.87274048466967,286.65,4.4907519569752905,2.637811635936952,0
smt_5854,12.871819591397937,286.65,4.490430696458377,2.637588638037449,0
smt_5855,12.871129485941044,286.65,4.490189947999667,2.6374217664393065,0
smt_5657,12.870563763997865,286.65,4.4899925916615615,2.6372851252171112,0
smt_21743,12.86996725333353,286.65,4.48978449444742,2.637141197553566,0
smt_22741,12.869355942736522,286.65,4.48957123416589,2.636993858984903,0
smt_6098,12.868870200976753,286.65,4.489401779513956,2.6368769007424007,0
smt_19120,12.868306828091734,286.65,4.489205242662388,2.6367413786701035,0
smt_22740,12.867749138376393,286.65,4.489010688427139,2.6366073596515416,0
smt_22738,12.851788410176061,286.65,4.483442668821232,2.630841589965755,0
smt_6754,12.851280918774151,286.65,4.483265626643695,2.6307184862642665,0
smt_6567,12.850764955785733,286.65,4.483085629089738,2.63059344148699,0
smt_6746,12.850251975327238,286.65,4.482906672013689,2.630469233497036,0
smt_6812,12.849747775501092,286.65,4.482730778127016,2.630347262407877,0
rbt_3405838,4.024831859340861,90.3,4.457178138804941,2.098298242498315,0
rbt_622273,2.5583915209287564,57.75,4.430115187755422,2.0856040830865914,0
rbt_1107341,2.7440567331077617,61.95,4.429470109939889,2.0844652006863904,0
rbt_638617,2.7349721576018684,61.95,4.414805742698738,2.0774432203291116,0
rbt_605828,3.9764641765970303,90.3,4.4036148135072315,2.073297629018916,0
rbt_1607292,3.899488183849361,90.3,4.318370081782239,2.030802116318915,0
rbt_1635060,2.6429908575846035,61.95,4.266329067933177,2.0064058680426036,0
rbt_1626490,3.851777151945478,90.3,4.265533944568636,3.2308355942758626,0
sbt_37156,6.966418815724478,163.8,4.253002940002734,1.9983693612598792,0
rbt_605867,3.8391553449893965,90.3,4.2515563067435185,1.9996808326583544,0
sbt_4615,6.877465402536797,163.8,4.1986968269455405,1.9777437741952175,0
sbt_3373,6.8774641782590376,163.8,4.198696079523222,1.9777429584454536,0
sbt_20793,6.877463053029137,163.8,4.198695392569681,1.9777422154939135,0
sbt_4010,6.87746130604062,163.8,4.198694326032125,1.9777410742359345,0
sbt_28804,6.877459716977555,163.8,4.198693355908153,1.977740048333026,0
rbt_605812,3.7415289746624967,90.3,4.143442939825578,1.9505168232600438,0
rbt_632613,3.737770525979937,90.3,4.139280759667704,1.9472371027466744,0
rbt_622713,3.7200993039058945,90.3,4.119711300006528,1.9359878631922613,0
rbt_606120,2.5403261969631985,61.95,4.100607259020498,1.9261421186097085,0
sbt_26269,8.796987021274644,216.3,4.067030523011855,1.9127405799400783,0
smt_7052,6.597687875359223,163.8,4.0278924757992804,2.159313215627177,0
rbt_1132019,3.6266360263732476,90.3,4.016208224112123,1.8887938021275403,0
rbt_605863,3.610868866514483,90.3,3.998747360481155,1.8812261346441923,0
rbt_634166,3.0292097978197527,76.65,3.9520023454921756,1.8572180165063081,0
rbt_1138614,2.4350022990897005,61.95,3.930592896028572,1.8485303073064283,0
rbt_605803,3.501185501430937,90.3,3.8772818399013707,1.8228621194842933,0
rbt_605834,3.4782086964750496,90.3,3.8518368731728128,1.8143718294305875,0
rbt_605904,2.3782206535022716,61.95,3.8389356795839733,1.8025274445530235,0
smt_29484,6.285854300577114,163.8,3.8375178880202157,1.9010126330051211,0
smt_22951,6.285840764101565,163.8,3.837509623993629,1.9010042924620538,0
smt_19381,6.2844995776842225,163.8,3.836690828867047,1.9001789555750659,0
smt_18804,6.283801277195351,163.8,3.8362645159922772,1.8997500841170636,0
smt_19380,6.283000984955079,163.8,3.8357759370910127,1.8992592899601206,0
smt_5349,6.282359743413986,163.8,3.835384458738697,1.898866591254211,0
smt_18803,6.2817084000995305,163.8,3.834986813247576,1.8984682131158486,0
smt_13454,6.281043277317282,163.8,3.834580755382956,1.8980619360504705,0
smt_19377,6.280252584955665,163.8,3.834098037213471,1.897579655141542,0
smt_29411,6.27925844583827,163.8,3.833491114675378,1.8969743624943665,0
smt_8954,6.278647594917118,163.8,3.83311818981509,1.8966030383300554,0
smt_5584,6.277935480272423,163.8,3.8326834433897576,1.8961707359520574,0
rbt_605810,2.9335656423932774,76.65,3.8272219731158215,1.798960261691801,0
rbt_605864,3.4522911883255643,90.3,3.823135313760315,1.7986441052778386,0
sbt_4118,10.92460305617227,286.65,3.8111296201542895,1.414881864088625,0
rbt_609682,2.9101209316802934,76.65,3.7966352663800302,1.7868278334049423,0
rbt_605835,3.3992575805192238,90.3,3.764404851073338,1.773164372740674,0
rbt_622703,2.331331876249573,61.95,3.7632475807095602,2.8509738028660396,0
sbt_14006,6.154456201561934,163.8,3.757299268352829,1.7671814989931771,0
smt_25186,6.079071900472054,163.8,3.7112771065152956,2.004869036285897,0
sbt_27416,8.01004122717864,216.3,3.7032090740539245,1.7418667620057409,0
sbt_15213,8.01004117178844,216.3,3.703209048445881,1.7418667500359275,0
rbt_606128,2.822041165868752,76.65,3.681723634531966,1.7303502413690381,0
rbt_1607257,3.296543973470996,90.3,3.650657777930228,1.7162486701612962,0
rbt_607385,3.2937448689465163,90.3,3.6475579944036727,1.7161024968326466,0
rbt_3405845,3.2828068481228354,90.3,3.6354450145324866,1.7118410167600917,0
rbt_633056,3.2729658490638003,90.3,3.6245468981880404,1.704325223692807,0
rbt_606141,3.26852380967824,90.3,3.6196276962106753,1.7042396917535632,0
rbt_623015,3.2613294889603823,90.3,3.6116605636327606,2.735781534505696,0
sbt_34389,4.604357068098787,128.1,3.5943458767359777,2.766596209558248,0
rbt_1606000,3.196012090348477,90.3,3.5393267888687454,1.6642708380881592,0
rbt_605982,3.1943078917782706,90.3,3.5374395257788156,1.6646643717218366,0
rbt_1629639,3.178775461392946,90.3,3.5202386061937387,1.6539781861506937,0
sbt_3952,5.754687120033779,163.8,3.513240000020622,1.6541010433839556,0
sbt_4120,5.754685668990136,163.8,3.513239114157592,1.6541000994740713,0
sbt_20855,5.754684252975711,163.8,3.513238249679921,1.6540991860320764,0
sbt_20854,5.754682906829168,163.8,3.5132374278566343,1.6540983243954301,0
rbt_635963,2.173073081168358,61.95,3.5077854417568326,1.6476488212414688,0
rbt_626481,3.131162641295977,90.3,3.4675112306710707,1.6301748901827262,0
rbt_1607306,2.6378198283927548,76.65,3.441382685443907,1.6184440054250562,0
rbt_605901,3.0948169006083277,90.3,3.4272612409837517,1.6104893713690183,0
rbt_605820,2.6269742110396366,76.65,3.4272331520412735,1.6125069018309206,0
rbt_3405847,3.092012740282501,90.3,3.4241558585631244,1.6123406915798923,0
rbt_1607289,2.6077679630249158,76.65,3.4021760770057607,1.5989033098020802,0
sbt_34000,7.347467162363841,216.3,3.396887268776625,1.596778180285362,0
smt_6512,9.68213390074603,286.65,3.3776849470594907,1.9960044364069942,0
smt_6425,9.681728076218828,286.65,3.3775433721328554,1.9959160820147555,0
smt_6930,9.681106348583615,286.65,3.377326477789505,1.995780927634098,0
sbt_20828,5.515623087658242,163.8,3.367291262306619,1.582835200694027,0
rbt_1609690,2.9948303081778205,90.3,3.3165341175834113,1.5584046847713715,0
smt_22686,9.479468995029496,286.65,3.306983776392638,2.0491587333530545,0
smt_6239,9.478989429424853,286.65,3.30681647633869,2.0490514709829974,0
smt_23961,9.47852128788637,286.65,3.3066531616558072,2.0489469007650416,0
smt_29407,9.478045036820951,286.65,3.306487017903699,2.0488406581901573,0
smt_6278,9.477618453067143,286.65,3.3063382009653384,2.04874561469525,0
smt_6630,9.477121044310733,286.65,3.306164676194221,2.048634933861483,0
smt_19070,9.476621224398311,286.65,3.3059903102732644,2.0485238712939124,0
smt_6639,9.476121657777579,286.65,3.3058160327150117,2.048413020382095,0
smt_19117,9.475655301381718,286.65,3.305653340792506,2.048309679049816,0
smt_21514,9.470465450500825,286.65,3.303842822431825,2.042533210569422,0
smt_5615,9.469983473529759,286.65,3.3036746811546345,2.0424237863934867,0
smt_18742,9.469608090654672,286.65,3.3035437260263993,2.042338660402866,0
smt_6270,9.469018486140488,286.65,3.303338038074477,2.042205128519224,0
smt_5967,9.468559861867904,286.65,3.3031780435611044,2.0421014073799415,0
smt_5772,9.468018800702072,286.65,3.302989290319928,2.041979207903196,0
smt_6158,9.46748363054352,286.65,3.3028025922007744,2.041858515308779,0
smt_6263,9.4670201117534,286.65,3.3026408901982904,2.041754123701075,0
smt_6384,9.466445222447534,286.65,3.3024403357570327,2.0416248331343287,0
smt_22684,9.465882656715731,286.65,3.3022440804869118,2.0414985110813975,0
smt_22685,9.46542360596755,286.65,3.302083937194331,2.0413955775718944,0
smt_29447,9.464942283990924,286.65,3.3019160244168586,2.0412877899804953,0
smt_19065,9.464426605449116,286.65,3.3017361260942324,2.0411724676060525,0
smt_24385,9.463843866532295,286.65,3.301532833257386,2.041042346771343,0
smt_29448,9.461811341941594,286.65,3.3008237718268254,2.0277965367366404,0
smt_6824,9.461342125332028,286.65,3.300660082097341,2.027687676662628,0
smt_6855,9.460838956740599,286.65,3.3004845479646256,2.027571087291198,0
smt_19062,9.460251291764619,286.65,3.300279536635137,2.027435113113269,0
smt_7054,9.459784142022443,286.65,3.3001165679478257,2.027327173088925,0
smt_6446,9.459306798443553,286.65,3.2999500430642086,2.0272170144645,0
smt_39006,9.45881768647752,286.65,3.2997794126905706,2.0271042836969007,0
smt_39008,9.458375677387705,286.65,3.2996252145081826,2.0270025344868476,0
smt_39007,9.458357048513566,286.65,3.2996187156858774,2.0269982484511844,0
smt_6122,9.457932824618284,286.65,3.299470722001844,2.0269007102213292,0
smt_18741,9.457397432151494,286.65,3.2992839463287957,2.0267777687806547,0
smt_5938,9.456901356374706,286.65,3.299110886577606,2.0266640120745065,0
smt_5946,9.4563284582474,286.65,3.2989110267739057,2.026532826583053,0
sbt_34382,4.217874464245989,128.1,3.292642048591717,1.5474290531182389,0
rbt_1625170,2.9732522660174694,90.3,3.292638168347142,1.5473289430068873,0
rbt_605821,4.20974919444612,128.1,3.2862991369602814,1.5443110446295012,0
sbt_35105,4.194370931527907,128.1,3.274294247875025,1.539177813597903,0
sbt_37537,7.073181377508887,216.3,3.270079231395694,1.3080610215209323,0
sbt_37545,7.073172606764622,216.3,3.270075176497745,1.3080616777830876,0
sbt_37546,7.073155646892737,216.3,3.2700673355953476,1.3080606179747385,0
sbt_37539,7.064625967156214,216.3,3.266123886803612,1.8876878796160173,0
sbt_37538,7.064620356235745,216.3,3.266121292758088,1.8876884395466262,0
rbt_605988,2.931966497765973,90.3,3.2469174947574455,1.5284622167991972,0
rbt_605804,1.9886752084005461,61.95,3.210129472801527,1.508735605529637,0
sbt_6048,5.20140614364805,163.8,3.1754616261587607,1.4949603227191803,0
rbt_605829,2.8634811816774017,90.3,3.171075505733557,1.491068893537325,0
sbt_15045,6.833110703654694,216.3,3.159089553238416,1.486300222239283,0
rbt_1107342,1.941640290116979,61.95,3.1342054723437913,1.473988402451962,0
rbt_1607316,2.8296143993701106,90.3,3.1335707634220493,2.3749287820787885,0
rbt_3405987,1.909928799407236,61.95,3.083016625354699,1.4519949826586778,0
sbt_22669,6.667470755196859,216.3,3.0825107513623937,1.4494331588388585,0
rbt_1132012,2.7734482655554267,90.3,3.071371279684858,1.4436929024377463,0
rbt_1607268,2.347588211145985,76.65,3.0627373922322048,1.4393802493633385,0
rbt_605823,2.7616871267607213,90.3,3.0583467627472,1.4386314624656633,0
sbt_35588,6.614261528580938,216.3,3.0579110164498093,1.4372384618596452,0
smt_29426,6.598417241523131,216.3,3.0505858721789783,1.6355381725802782,0
sbt_21281,4.948913620199791,163.8,3.0213147864467587,1.41960743782837,0
rbt_605989,2.693632894831503,90.3,2.9829821648189405,1.4020724561218374,0
rbt_1121173,2.6916303726656023,90.3,2.980764532298563,1.4024537043900105,0
rbt_605807,2.681504673375214,90.3,2.969551133305885,1.3973873830716101,0
rbt_606130,2.259142671236898,76.65,2.9473485599959526,1.3849712710610256,0
sbt_3491,4.819553337208622,163.8,2.942340254706118,1.383206090984255,0
rbt_637399,1.812381039399844,61.95,2.9255545430183116,1.3748440755773936,0
sbt_21191,4.779711059758998,163.8,2.9180165199993877,1.3720937251882956,0
sbt_26310,4.716924005994006,163.8,2.879684985344326,1.3542714143528627,0
rbt_637705,2.5861888906679233,90.3,2.863996556664367,2.1696788515197016,0
rbt_1105833,2.5821003488664087,90.3,2.859468824879744,1.3443616412873887,0
rbt_1607276,2.566407892407453,90.3,2.8420906892662825,1.3355095732980165,0
smt_25183,6.0784351875145735,216.3,2.8101873266364183,1.5179559052433704,0
smt_25117,6.077785003271132,216.3,2.809886732903898,1.5176555163383687,0
smt_25116,6.07711661538845,216.3,2.809577723249399,1.5173470060076486,0
smt_25115,6.076593646780389,216.3,2.809335943957646,1.517105822157889,0
smt_25114,6.076134649470937,216.3,2.809123739931085,1.5168942891993515,0
smt_25113,6.0755989830698205,216.3,2.808876090184845,1.5166475985826828,0
smt_25112,6.075033127755683,216.3,2.8086144834746567,1.5163872113936074,0
smt_25111,6.0746623963749595,216.3,2.8084430866273506,1.5162167287253443,0
smt_25110,6.074394615900014,216.3,2.8083192861303807,1.5160936453889924,0
smt_25109,6.073688311810756,216.3,2.807992747023003,1.5157692270561105,0
...